  Page 1                                    Wed Jan 15 18:35:05 2014

  ******************************************************************
  *                           E P A N E T                          *
  *                   Hydraulic and Water Quality                  *
  *                   Analysis for Pipe Networks                   *
  *                         Version 2.00.12                        *
  ******************************************************************
  
  Analysis begun Wed Jan 15 18:35:05 2014

  Analysis ended Wed Jan 15 18:35:05 2014
